<configuration>
    <input>
        <net-file value="chicago_n.net.xml"/>
        <route-files value="random_trips.trips.xml,generated_trips.trips.xml"/>
        <additional-files value="dummy_vtypes.add.xml"/>
    </input>
    <time>
        <begin value="0"/>
        <end value="6000"/> <!-- simulation time in seconds -->
        <step-length value="1"/> <!-- .1-second step -->
    </time>
</configuration>

